
OS:Version,
  {18650007-386f-46e0-bef8-c785461f8593}, !- Handle
  3.6.1,                                  !- Version Identifier
  alpha;                                  !- Prerelease Identifier

OS:Building,
  {22d8f52a-23f1-4a7b-8616-d0a1be201aa6}, !- Handle
  Unnamed,                                !- Name
  ,                                       !- Building Sector Type
  0,                                      !- North Axis {deg}
  ,                                       !- Nominal Floor to Floor Height {m}
  ,                                       !- Space Type Name
  {60225eb7-543e-4da9-a28d-31e508c6d4d9}, !- Default Construction Set Name
  ,                                       !- Default Schedule Set Name
  ,                                       !- Standards Number of Stories
  ,                                       !- Standards Number of Above Ground Stories
  ,                                       !- Standards Template
  MediumOffice;                           !- Standards Building Type

OS:Facility,
  {1a20d980-5911-438c-913e-92ba0cc4ddf1}; !- Handle

OS:Site,
  {bc46b151-ad55-4f8d-8784-eef47232cb5b}, !- Handle
  Site 1,                                 !- Name
  ,                                       !- Latitude {deg}
  ,                                       !- Longitude {deg}
  ,                                       !- Time Zone {hr}
  ,                                       !- Elevation {m}
  City;                                   !- Terrain

OS:SimulationControl,
  {cc6dd4e3-5b20-4c36-b3ba-bdba76158348}, !- Handle
  Yes,                                    !- Do Zone Sizing Calculation
  Yes,                                    !- Do System Sizing Calculation
  Yes,                                    !- Do Plant Sizing Calculation
  No,                                     !- Run Simulation for Sizing Periods
  Yes,                                    !- Run Simulation for Weather File Run Periods
  ,                                       !- Loads Convergence Tolerance Value {W}
  ,                                       !- Temperature Convergence Tolerance Value {deltaC}
  FullExteriorWithReflections;            !- Solar Distribution

OS:Sizing:Parameters,
  {ef504cf0-9eb7-4aad-a340-7a39ee5e38e9}, !- Handle
  1.25,                                   !- Heating Sizing Factor
  1.15;                                   !- Cooling Sizing Factor

OS:Timestep,
  {af342f74-a03c-498f-999e-1194879c1b9c}, !- Handle
  6;                                      !- Number of Timesteps per Hour

OS:ShadowCalculation,
  {d76934af-20a5-464b-a24f-b886ba6477c5}, !- Handle
  PolygonClipping,                        !- Shading Calculation Method
  Periodic,                               !- Shading Calculation Update Frequency Method
  30,                                     !- Shading Calculation Update Frequency
  15000,                                  !- Maximum Figures in Shadow Overlap Calculations
  ,                                       !- Polygon Clipping Algorithm
  512,                                    !- Pixel Counting Resolution
  ,                                       !- Sky Diffuse Modeling Algorithm
  No,                                     !- Output External Shading Calculation Results
  No,                                     !- Disable Self-Shading Within Shading Zone Groups
  No;                                     !- Disable Self-Shading From Shading Zone Groups to Other Zones

OS:HeatBalanceAlgorithm,
  {2512f899-3d0a-4add-9ad1-8e1e85f59614}, !- Handle
  ConductionTransferFunction,             !- Algorithm
  200;                                    !- Surface Temperature Upper Limit {C}

OS:RunPeriod,
  {7f8d1954-8cee-4b16-b125-7df404d79e6b}, !- Handle
  Run Period 1,                           !- Name
  1,                                      !- Begin Month
  1,                                      !- Begin Day of Month
  12,                                     !- End Month
  31,                                     !- End Day of Month
  ,                                       !- Use Weather File Holidays and Special Days
  ,                                       !- Use Weather File Daylight Saving Period
  ,                                       !- Apply Weekend Holiday Rule
  ,                                       !- Use Weather File Rain Indicators
  ,                                       !- Use Weather File Snow Indicators
  ;                                       !- Number of Times Runperiod to be Repeated

OS:LifeCycleCost:Parameters,
  {e7a412f6-f7b3-49f1-b94b-ebd0e8744d54}, !- Handle
  ,                                       !- Analysis Type
  ,                                       !- Discounting Convention
  ,                                       !- Inflation Approach
  ,                                       !- Real Discount Rate
  ,                                       !- Nominal Discount Rate
  ,                                       !- Inflation
  ,                                       !- Base Date Month
  ,                                       !- Base Date Year
  ,                                       !- Service Date Month
  ,                                       !- Service Date Year
  ;                                       !- Length of Study Period in Years

OS:Site:WaterMainsTemperature,
  {b9c86505-7012-422a-bd52-2be656e2c447}, !- Handle
  CorrelationFromWeatherFile;             !- Calculation Method

OS:ClimateZones,
  {4600b8ef-5a7c-408f-b41d-df71edf33771}; !- Handle

OS:YearDescription,
  {f3ed077e-6990-4301-9d8d-7b3cfbcc1649}, !- Handle
  ,                                       !- Calendar Year
  Sunday,                                 !- Day of Week for Start Day
  No;                                     !- Is Leap Year

OS:ScheduleTypeLimits,
  {b6cbf91a-c5e2-49ee-bdbe-3bec3c961446}, !- Handle
  Activity Level,                         !- Name
  0,                                      !- Lower Limit Value
  ,                                       !- Upper Limit Value
  Continuous,                             !- Numeric Type
  ActivityLevel;                          !- Unit Type

OS:ScheduleTypeLimits,
  {e95398f2-3b56-4f2c-ad27-71c47d09c4a4}, !- Handle
  Temperature,                            !- Name
  -273.15,                                !- Lower Limit Value
  ,                                       !- Upper Limit Value
  Continuous,                             !- Numeric Type
  Temperature;                            !- Unit Type

OS:ScheduleTypeLimits,
  {79a7743f-d68e-4ec8-8cf2-5cabc5d99751}, !- Handle
  Fractional,                             !- Name
  0,                                      !- Lower Limit Value
  1,                                      !- Upper Limit Value
  Continuous,                             !- Numeric Type
  Dimensionless;                          !- Unit Type

OS:Schedule:Ruleset,
  {398ac989-45bb-4022-a2f3-16f6538461c5}, !- Handle
  Generic Office Occupancy,               !- Name
  {79a7743f-d68e-4ec8-8cf2-5cabc5d99751}, !- Schedule Type Limits Name
  {3fea75bd-4c63-4ee5-ba1b-eb3776fcf044}, !- Default Day Schedule Name
  {d8cea3c8-4403-4f92-9f13-4ca50d580018}, !- Summer Design Day Schedule Name
  {2a7bacf1-5ee2-40d5-9fae-9846e98363c2}, !- Winter Design Day Schedule Name
  {6fc55d4a-bcba-4ca3-a1a1-96c33df1ea03}; !- Holiday Schedule Name

OS:Schedule:Day,
  {3fea75bd-4c63-4ee5-ba1b-eb3776fcf044}, !- Handle
  OfficeMedium BLDG_OCC_SCH_Default,      !- Name
  {79a7743f-d68e-4ec8-8cf2-5cabc5d99751}, !- Schedule Type Limits Name
  ,                                       !- Interpolate to Timestep
  6,                                      !- Hour 1
  0,                                      !- Minute 1
  0,                                      !- Value Until Time 1
  18,                                     !- Hour 2
  0,                                      !- Minute 2
  0.05,                                   !- Value Until Time 2
  24,                                     !- Hour 3
  0,                                      !- Minute 3
  0;                                      !- Value Until Time 3

OS:Schedule:Day,
  {b0f6ce4f-8170-4842-bd4a-134f2997eb8a}, !- Handle
  OfficeMedium BLDG_OCC_SCH_SmrDsn,       !- Name
  {79a7743f-d68e-4ec8-8cf2-5cabc5d99751}, !- Schedule Type Limits Name
  ,                                       !- Interpolate to Timestep
  6,                                      !- Hour 1
  0,                                      !- Minute 1
  0,                                      !- Value Until Time 1
  22,                                     !- Hour 2
  0,                                      !- Minute 2
  1,                                      !- Value Until Time 2
  24,                                     !- Hour 3
  0,                                      !- Minute 3
  0.05;                                   !- Value Until Time 3

OS:Schedule:Day,
  {6da24086-9617-4615-8fd0-8ce578af995f}, !- Handle
  OfficeMedium BLDG_OCC_SCH_WntrDsn,      !- Name
  {79a7743f-d68e-4ec8-8cf2-5cabc5d99751}, !- Schedule Type Limits Name
  ,                                       !- Interpolate to Timestep
  24,                                     !- Hour 1
  0,                                      !- Minute 1
  0;                                      !- Value Until Time 1

OS:Schedule:Day,
  {ebfbcb44-402f-4d30-8ba6-c41657c5c8a4}, !- Handle
  OfficeMedium BLDG_OCC_SCH_Wkdy,         !- Name
  {79a7743f-d68e-4ec8-8cf2-5cabc5d99751}, !- Schedule Type Limits Name
  ,                                       !- Interpolate to Timestep
  6,                                      !- Hour 1
  0,                                      !- Minute 1
  0,                                      !- Value Until Time 1
  7,                                      !- Hour 2
  0,                                      !- Minute 2
  0.1,                                    !- Value Until Time 2
  8,                                      !- Hour 3
  0,                                      !- Minute 3
  0.2,                                    !- Value Until Time 3
  12,                                     !- Hour 4
  0,                                      !- Minute 4
  0.95,                                   !- Value Until Time 4
  13,                                     !- Hour 5
  0,                                      !- Minute 5
  0.5,                                    !- Value Until Time 5
  17,                                     !- Hour 6
  0,                                      !- Minute 6
  0.95,                                   !- Value Until Time 6
  18,                                     !- Hour 7
  0,                                      !- Minute 7
  0.3,                                    !- Value Until Time 7
  22,                                     !- Hour 8
  0,                                      !- Minute 8
  0.1,                                    !- Value Until Time 8
  24,                                     !- Hour 9
  0,                                      !- Minute 9
  0.05;                                   !- Value Until Time 9

OS:Schedule:Day,
  {2ef2711f-353e-4252-b2f2-91c8c9667564}, !- Handle
  OfficeMedium BLDG_OCC_SCH_Sat,          !- Name
  {79a7743f-d68e-4ec8-8cf2-5cabc5d99751}, !- Schedule Type Limits Name
  ,                                       !- Interpolate to Timestep
  6,                                      !- Hour 1
  0,                                      !- Minute 1
  0,                                      !- Value Until Time 1
  8,                                      !- Hour 2
  0,                                      !- Minute 2
  0.1,                                    !- Value Until Time 2
  12,                                     !- Hour 3
  0,                                      !- Minute 3
  0.3,                                    !- Value Until Time 3
  17,                                     !- Hour 4
  0,                                      !- Minute 4
  0.1,                                    !- Value Until Time 4
  19,                                     !- Hour 5
  0,                                      !- Minute 5
  0.05,                                   !- Value Until Time 5
  24,                                     !- Hour 6
  0,                                      !- Minute 6
  0;                                      !- Value Until Time 6

OS:Schedule:Day,
  {6fc55d4a-bcba-4ca3-a1a1-96c33df1ea03}, !- Handle
  OfficeMedium BLDG_OCC_SCH_Default 1,    !- Name
  {79a7743f-d68e-4ec8-8cf2-5cabc5d99751}, !- Schedule Type Limits Name
  ,                                       !- Interpolate to Timestep
  6,                                      !- Hour 1
  0,                                      !- Minute 1
  0,                                      !- Value Until Time 1
  18,                                     !- Hour 2
  0,                                      !- Minute 2
  0.05,                                   !- Value Until Time 2
  24,                                     !- Hour 3
  0,                                      !- Minute 3
  0;                                      !- Value Until Time 3

OS:Schedule:Day,
  {d8cea3c8-4403-4f92-9f13-4ca50d580018}, !- Handle
  OfficeMedium BLDG_OCC_SCH_SmrDsn 1,     !- Name
  {79a7743f-d68e-4ec8-8cf2-5cabc5d99751}, !- Schedule Type Limits Name
  ,                                       !- Interpolate to Timestep
  6,                                      !- Hour 1
  0,                                      !- Minute 1
  0,                                      !- Value Until Time 1
  22,                                     !- Hour 2
  0,                                      !- Minute 2
  1,                                      !- Value Until Time 2
  24,                                     !- Hour 3
  0,                                      !- Minute 3
  0.05;                                   !- Value Until Time 3

OS:Schedule:Day,
  {2a7bacf1-5ee2-40d5-9fae-9846e98363c2}, !- Handle
  OfficeMedium BLDG_OCC_SCH_WntrDsn 1,    !- Name
  {79a7743f-d68e-4ec8-8cf2-5cabc5d99751}, !- Schedule Type Limits Name
  ,                                       !- Interpolate to Timestep
  24,                                     !- Hour 1
  0,                                      !- Minute 1
  0;                                      !- Value Until Time 1

OS:Schedule:Rule,
  {b1240a1b-6bc0-40d7-918a-73967f1bc02e}, !- Handle
  Schedule Rule 1,                        !- Name
  {398ac989-45bb-4022-a2f3-16f6538461c5}, !- Schedule Ruleset Name
  0,                                      !- Rule Order
  {b71547b9-7471-4e35-a3a2-77f70fd1b6c9}, !- Day Schedule Name
  No,                                     !- Apply Sunday
  Yes,                                    !- Apply Monday
  Yes,                                    !- Apply Tuesday
  Yes,                                    !- Apply Wednesday
  Yes,                                    !- Apply Thursday
  Yes,                                    !- Apply Friday
  No,                                     !- Apply Saturday
  DateRange,                              !- Date Specification Type
  1,                                      !- Start Month
  1,                                      !- Start Day
  12,                                     !- End Month
  31;                                     !- End Day

OS:Schedule:Day,
  {b71547b9-7471-4e35-a3a2-77f70fd1b6c9}, !- Handle
  Schedule Day 1,                         !- Name
  {79a7743f-d68e-4ec8-8cf2-5cabc5d99751}, !- Schedule Type Limits Name
  ,                                       !- Interpolate to Timestep
  6,                                      !- Hour 1
  0,                                      !- Minute 1
  0,                                      !- Value Until Time 1
  7,                                      !- Hour 2
  0,                                      !- Minute 2
  0.1,                                    !- Value Until Time 2
  8,                                      !- Hour 3
  0,                                      !- Minute 3
  0.2,                                    !- Value Until Time 3
  12,                                     !- Hour 4
  0,                                      !- Minute 4
  0.95,                                   !- Value Until Time 4
  13,                                     !- Hour 5
  0,                                      !- Minute 5
  0.5,                                    !- Value Until Time 5
  17,                                     !- Hour 6
  0,                                      !- Minute 6
  0.95,                                   !- Value Until Time 6
  18,                                     !- Hour 7
  0,                                      !- Minute 7
  0.3,                                    !- Value Until Time 7
  22,                                     !- Hour 8
  0,                                      !- Minute 8
  0.1,                                    !- Value Until Time 8
  24,                                     !- Hour 9
  0,                                      !- Minute 9
  0.05;                                   !- Value Until Time 9

OS:Schedule:Rule,
  {272be06a-1556-45d1-9bae-500814fc508e}, !- Handle
  Schedule Rule 2,                        !- Name
  {398ac989-45bb-4022-a2f3-16f6538461c5}, !- Schedule Ruleset Name
  1,                                      !- Rule Order
  {b2dba17d-18eb-4879-bc6e-738515fb5e1e}, !- Day Schedule Name
  No,                                     !- Apply Sunday
  No,                                     !- Apply Monday
  No,                                     !- Apply Tuesday
  No,                                     !- Apply Wednesday
  No,                                     !- Apply Thursday
  No,                                     !- Apply Friday
  Yes,                                    !- Apply Saturday
  DateRange,                              !- Date Specification Type
  1,                                      !- Start Month
  1,                                      !- Start Day
  12,                                     !- End Month
  31;                                     !- End Day

OS:Schedule:Day,
  {b2dba17d-18eb-4879-bc6e-738515fb5e1e}, !- Handle
  Schedule Day 2,                         !- Name
  {79a7743f-d68e-4ec8-8cf2-5cabc5d99751}, !- Schedule Type Limits Name
  ,                                       !- Interpolate to Timestep
  6,                                      !- Hour 1
  0,                                      !- Minute 1
  0,                                      !- Value Until Time 1
  8,                                      !- Hour 2
  0,                                      !- Minute 2
  0.1,                                    !- Value Until Time 2
  12,                                     !- Hour 3
  0,                                      !- Minute 3
  0.3,                                    !- Value Until Time 3
  17,                                     !- Hour 4
  0,                                      !- Minute 4
  0.1,                                    !- Value Until Time 4
  19,                                     !- Hour 5
  0,                                      !- Minute 5
  0.05,                                   !- Value Until Time 5
  24,                                     !- Hour 6
  0,                                      !- Minute 6
  0;                                      !- Value Until Time 6

OS:Schedule:Ruleset,
  {776bd1b5-1e3f-4f88-9d33-b3f4fbce13d1}, !- Handle
  Generic Office Heating,                 !- Name
  {e95398f2-3b56-4f2c-ad27-71c47d09c4a4}, !- Schedule Type Limits Name
  {4c627933-51c2-42e9-8995-8a7a801e5fcd}, !- Default Day Schedule Name
  {0c5d9131-1dd7-4b3d-bc38-fe15d61750e0}, !- Summer Design Day Schedule Name
  {e1123046-b7f7-4fc3-8231-c07fad20a3b8}, !- Winter Design Day Schedule Name
  {9554e785-4cf9-472d-aaea-4b5d12346675}; !- Holiday Schedule Name

OS:Schedule:Day,
  {4c627933-51c2-42e9-8995-8a7a801e5fcd}, !- Handle
  OfficeMedium HTGSETP_SCH_YES_OPTIMUM_Default, !- Name
  {e95398f2-3b56-4f2c-ad27-71c47d09c4a4}, !- Schedule Type Limits Name
  ,                                       !- Interpolate to Timestep
  24,                                     !- Hour 1
  0,                                      !- Minute 1
  15.6;                                   !- Value Until Time 1

OS:Schedule:Day,
  {6d4f92bb-d9fd-41ca-b0b9-03f2169a488f}, !- Handle
  OfficeMedium HTGSETP_SCH_YES_OPTIMUM_Default_SmrDsn, !- Name
  {e95398f2-3b56-4f2c-ad27-71c47d09c4a4}, !- Schedule Type Limits Name
  ,                                       !- Interpolate to Timestep
  24,                                     !- Hour 1
  0,                                      !- Minute 1
  15.6;                                   !- Value Until Time 1

OS:Schedule:Day,
  {e7f46f4f-97f2-4bde-82e5-ee89c30d1af0}, !- Handle
  OfficeMedium HTGSETP_SCH_YES_OPTIMUM_WntrDsn, !- Name
  {e95398f2-3b56-4f2c-ad27-71c47d09c4a4}, !- Schedule Type Limits Name
  ,                                       !- Interpolate to Timestep
  5,                                      !- Hour 1
  0,                                      !- Minute 1
  15.6,                                   !- Value Until Time 1
  6,                                      !- Hour 2
  0,                                      !- Minute 2
  17.6,                                   !- Value Until Time 2
  7,                                      !- Hour 3
  0,                                      !- Minute 3
  19.6,                                   !- Value Until Time 3
  22,                                     !- Hour 4
  0,                                      !- Minute 4
  21,                                     !- Value Until Time 4
  24,                                     !- Hour 5
  0,                                      !- Minute 5
  15.6;                                   !- Value Until Time 5

OS:Schedule:Day,
  {04ef343e-aabf-4d34-99e6-d45a6bf46250}, !- Handle
  OfficeMedium HTGSETP_SCH_YES_OPTIMUM_Wkdy, !- Name
  {e95398f2-3b56-4f2c-ad27-71c47d09c4a4}, !- Schedule Type Limits Name
  ,                                       !- Interpolate to Timestep
  5,                                      !- Hour 1
  0,                                      !- Minute 1
  15.6,                                   !- Value Until Time 1
  6,                                      !- Hour 2
  0,                                      !- Minute 2
  17.8,                                   !- Value Until Time 2
  7,                                      !- Hour 3
  0,                                      !- Minute 3
  20,                                     !- Value Until Time 3
  22,                                     !- Hour 4
  0,                                      !- Minute 4
  21,                                     !- Value Until Time 4
  24,                                     !- Hour 5
  0,                                      !- Minute 5
  15.6;                                   !- Value Until Time 5

OS:Schedule:Day,
  {6aec203a-3746-4b1a-b6fa-3ae8440de901}, !- Handle
  OfficeMedium HTGSETP_SCH_YES_OPTIMUM_Sat, !- Name
  {e95398f2-3b56-4f2c-ad27-71c47d09c4a4}, !- Schedule Type Limits Name
  ,                                       !- Interpolate to Timestep
  5,                                      !- Hour 1
  0,                                      !- Minute 1
  15.6,                                   !- Value Until Time 1
  6,                                      !- Hour 2
  0,                                      !- Minute 2
  17.8,                                   !- Value Until Time 2
  7,                                      !- Hour 3
  0,                                      !- Minute 3
  20,                                     !- Value Until Time 3
  17,                                     !- Hour 4
  0,                                      !- Minute 4
  21,                                     !- Value Until Time 4
  24,                                     !- Hour 5
  0,                                      !- Minute 5
  15.6;                                   !- Value Until Time 5

OS:Schedule:Day,
  {9554e785-4cf9-472d-aaea-4b5d12346675}, !- Handle
  OfficeMedium HTGSETP_SCH_YES_OPTIMUM_Default 1, !- Name
  {e95398f2-3b56-4f2c-ad27-71c47d09c4a4}, !- Schedule Type Limits Name
  ,                                       !- Interpolate to Timestep
  24,                                     !- Hour 1
  0,                                      !- Minute 1
  15.6;                                   !- Value Until Time 1

OS:Schedule:Day,
  {0c5d9131-1dd7-4b3d-bc38-fe15d61750e0}, !- Handle
  OfficeMedium HTGSETP_SCH_YES_OPTIMUM_Default_SmrDsn 1, !- Name
  {e95398f2-3b56-4f2c-ad27-71c47d09c4a4}, !- Schedule Type Limits Name
  ,                                       !- Interpolate to Timestep
  24,                                     !- Hour 1
  0,                                      !- Minute 1
  15.6;                                   !- Value Until Time 1

OS:Schedule:Day,
  {e1123046-b7f7-4fc3-8231-c07fad20a3b8}, !- Handle
  OfficeMedium HTGSETP_SCH_YES_OPTIMUM_WntrDsn 1, !- Name
  {e95398f2-3b56-4f2c-ad27-71c47d09c4a4}, !- Schedule Type Limits Name
  ,                                       !- Interpolate to Timestep
  5,                                      !- Hour 1
  0,                                      !- Minute 1
  15.6,                                   !- Value Until Time 1
  6,                                      !- Hour 2
  0,                                      !- Minute 2
  17.6,                                   !- Value Until Time 2
  7,                                      !- Hour 3
  0,                                      !- Minute 3
  19.6,                                   !- Value Until Time 3
  22,                                     !- Hour 4
  0,                                      !- Minute 4
  21,                                     !- Value Until Time 4
  24,                                     !- Hour 5
  0,                                      !- Minute 5
  15.6;                                   !- Value Until Time 5

OS:Schedule:Rule,
  {7c9f5263-eab9-4d6a-9fda-a7b207cd08c0}, !- Handle
  Schedule Rule 3,                        !- Name
  {776bd1b5-1e3f-4f88-9d33-b3f4fbce13d1}, !- Schedule Ruleset Name
  0,                                      !- Rule Order
  {3f850728-b38c-4535-a594-c2e6c37a7bc1}, !- Day Schedule Name
  No,                                     !- Apply Sunday
  Yes,                                    !- Apply Monday
  Yes,                                    !- Apply Tuesday
  Yes,                                    !- Apply Wednesday
  Yes,                                    !- Apply Thursday
  Yes,                                    !- Apply Friday
  No,                                     !- Apply Saturday
  DateRange,                              !- Date Specification Type
  1,                                      !- Start Month
  1,                                      !- Start Day
  12,                                     !- End Month
  31;                                     !- End Day

OS:Schedule:Day,
  {3f850728-b38c-4535-a594-c2e6c37a7bc1}, !- Handle
  Schedule Day 3,                         !- Name
  {e95398f2-3b56-4f2c-ad27-71c47d09c4a4}, !- Schedule Type Limits Name
  ,                                       !- Interpolate to Timestep
  5,                                      !- Hour 1
  0,                                      !- Minute 1
  15.6,                                   !- Value Until Time 1
  6,                                      !- Hour 2
  0,                                      !- Minute 2
  17.8,                                   !- Value Until Time 2
  7,                                      !- Hour 3
  0,                                      !- Minute 3
  20,                                     !- Value Until Time 3
  22,                                     !- Hour 4
  0,                                      !- Minute 4
  21,                                     !- Value Until Time 4
  24,                                     !- Hour 5
  0,                                      !- Minute 5
  15.6;                                   !- Value Until Time 5

OS:Schedule:Rule,
  {fe2ce373-f640-4858-be1d-5eb26ffa0fed}, !- Handle
  Schedule Rule 4,                        !- Name
  {776bd1b5-1e3f-4f88-9d33-b3f4fbce13d1}, !- Schedule Ruleset Name
  1,                                      !- Rule Order
  {56472827-c2e5-4362-81b8-067f0ae0ca5a}, !- Day Schedule Name
  No,                                     !- Apply Sunday
  No,                                     !- Apply Monday
  No,                                     !- Apply Tuesday
  No,                                     !- Apply Wednesday
  No,                                     !- Apply Thursday
  No,                                     !- Apply Friday
  Yes,                                    !- Apply Saturday
  DateRange,                              !- Date Specification Type
  1,                                      !- Start Month
  1,                                      !- Start Day
  12,                                     !- End Month
  31;                                     !- End Day

OS:Schedule:Day,
  {56472827-c2e5-4362-81b8-067f0ae0ca5a}, !- Handle
  Schedule Day 4,                         !- Name